60
C        3.408486753700000094   -0.935238794300000009   -0.116100955800000002
C        3.505074505400000096    0.445493212699999974    0.060726911799999998
C       -3.505074505500000104   -0.445493212199999988   -0.060726911699999997
C       -3.408486753800000102    0.935238794800000051    0.116100955899999997
C        0.688954007600000029    0.374744107599999987   -3.444429221200000057
C       -0.695870461699999998    0.467743412099999978   -3.436135017299999816
C        0.695870461599999990   -0.467743411599999992    3.436135017499999833
C       -0.688954007700000037   -0.374744106999999993    3.444429221400000074
C       -0.239458413300000006   -3.354546644400000055   -1.098854797200000011
C       -0.244132126300000002   -3.528811777400000071    0.283652385999999979
C        0.244132126199999994    3.528811777900000113   -0.283652385800000018
C        0.239458413199999998    3.354546644900000096    1.098854797400000027
C        2.923259742499999980   -1.480956298099999957   -1.355245025399999914
C        2.909911735500000152   -1.759444699599999939    0.972456038899999986
C        3.099824416000000138    1.336068646800000037   -1.016600031000000071
C        3.115143984599999971    1.049218606399999976    1.306224401099999932
C       -3.115143984799999988   -1.049218605899999934   -1.306224400899999916
C       -3.099824416000000138   -1.336068646400000004    1.016600031100000079
C       -2.909911735700000168    1.759444700099999981   -0.972456038699999969
C       -2.923259742499999980    1.480956298599999998    1.355245025499999922
C        1.336687604099999982   -0.893071376299999997   -3.143596087800000216
C        1.491412899700000017    1.431183516800000000   -2.871489090699999913
C       -1.506808370599999947   -0.692976835099999966   -3.133902633199999954
C       -1.333837370699999969    1.631923115900000054   -2.849624393200000050
C        1.333837370599999961   -1.631923115400000013    2.849624393400000066
C        1.506808370499999938    0.692976835700000016    3.133902633399999971
C       -1.491412899800000025   -1.431183516399999966    2.871489090899999930
C       -1.336687604199999990    0.893071376800000039    3.143596087999999789
C        0.955037267499999953   -2.900247160200000174   -1.770269093000000016
C       -1.373070376400000070   -2.729243626900000219   -1.754508772799999949
C        0.958970037800000008   -3.252472107700000059    1.042638326600000109
C       -1.377261168700000038   -3.094388662400000101    1.064482188299999965
C        1.377261168600000030    3.094388662900000142   -1.064482188099999949
C       -0.958970037900000016    3.252472108100000092   -1.042638326400000093
C        1.373070376400000070    2.729243627499999825    1.754508772999999966
C       -0.955037267499999953    2.900247160799999779    1.770269093200000032
C        2.535629662499999881   -0.622532219799999953   -2.396119104999999916
C        2.532535143900000119   -1.177120117899999929    2.172493176500000178
C        2.625492422099999779    0.808880699100000045   -2.210681902200000160
C        2.633835290499999982    0.258952914899999997    2.353921240200000042
C       -2.633835290599999990   -0.258952914400000012   -2.353921240000000026
C       -2.625492422099999779   -0.808880698600000003    2.210681902300000168
C       -2.532535144000000127    1.177120118399999971   -2.172493176300000162
C       -2.535629662599999889    0.622532220299999994    2.396119105199999932
C        0.554457278400000031   -2.008462482800000171   -2.849362098599999893
C        0.882408207600000050    2.546111023099999926   -2.307267260899999783
C       -0.880687373700000053   -1.913181672699999947   -2.845996837700000004
C       -0.564402511900000015    2.644836636299999988   -2.298724725800000090
C        0.564402511800000006   -2.644836635799999947    2.298724725900000099
C        0.880687373600000045    1.913181673199999988    2.845996837900000020
C       -0.882408207699999947   -2.546111022599999885    2.307267260999999792
C       -0.554457278500000039    2.008462483300000212    2.849362098799999909
C        2.108820594200000009   -2.634266975000000066   -1.043863937900000094
C       -2.462797339100000205   -2.311724634199999961   -1.002963272099999914
C        2.106879088599999950   -2.817777384000000218    0.396945424599999985
C       -2.470948006199999991   -2.497941274900000064    0.432553622099999979
C        2.470948006199999991    2.497941275400000105   -0.432553622000000026
C       -2.106879088699999958    2.817777384499999815   -0.396945424499999977
C        2.462797339000000196    2.311724634700000003    1.002963272199999922
C       -2.108820594300000018    2.634266975600000116    1.043863938100000111
